xflr5 v6.55

Plane name :        Elev_Distance_003
Polar name :        T1-20.0 m/s-VLM2
Freestream speed :  20.000 m/s


   alpha      Beta       CL          CDi        CDv        CD         CY         Cl         Cm         Cn        Cni       QInf        XCP
   -1.000     0.000  -0.152403   0.001304   0.011921   0.013224  -0.000000   0.000000   0.175826   0.000000   0.000000   20.0000     0.5459
   -0.500     0.000  -0.118211   0.000837   0.012142   0.012979  -0.000000   0.000000   0.151166   0.000000   0.000000   20.0000     0.5646
    0.000     0.000  -0.083995   0.000493   0.012472   0.012965  -0.000000   0.000000   0.126484   0.000000   0.000000   20.0000     0.5986
    0.500     0.000  -0.049759   0.000273   0.012808   0.013081  -0.000000   0.000000   0.101788   0.000000   0.000000   20.0000     0.6797
    1.000     0.000  -0.015510   0.000177   0.013074   0.013251   0.000000   0.000000   0.077087  -0.000000  -0.000000   20.0000     1.1191
    1.500     0.000   0.018747   0.000204   0.013015   0.013219   0.000000   0.000000   0.052398  -0.000000  -0.000000   20.0000    -0.0476
    2.000     0.000   0.053006   0.000356   0.012901   0.013257   0.000000   0.000000   0.027726  -0.000000  -0.000000   20.0000     0.2938


