xflr5 v6.55

Plane name :        Elev_Distance_003
Polar name :        T1-19.3 m/s-VLM2
Freestream speed :  19.300 m/s


   alpha      Beta       CL          CDi        CDv        CD         CY         Cl         Cm         Cn        Cni       QInf        XCP
   -1.000     0.000  -0.152403   0.001304   0.012144   0.013448  -0.000000   0.000000   0.175827   0.000000   0.000000   19.3000     0.5459
   -0.500     0.000  -0.118211   0.000837   0.012391   0.013228  -0.000000   0.000000   0.151166   0.000000   0.000000   19.3000     0.5646
    0.000     0.000  -0.083995   0.000493   0.012723   0.013216  -0.000000   0.000000   0.126482   0.000000   0.000000   19.3000     0.5986
    0.500     0.000  -0.049759   0.000273   0.013052   0.013325  -0.000000   0.000000   0.101784   0.000000   0.000000   19.3000     0.6797
    1.000     0.000  -0.015510   0.000177   0.013293   0.013470   0.000000   0.000000   0.077083  -0.000000  -0.000000   19.3000     1.1191
    1.500     0.000   0.018747   0.000204   0.013207   0.013412   0.000000   0.000000   0.052394  -0.000000  -0.000000   19.3000    -0.0476
    2.000     0.000   0.053006   0.000356   0.013101   0.013458   0.000000   0.000000   0.027719  -0.000000  -0.000000   19.3000     0.2938


