xflr5 v6.55

Plane name :        Elev_Distance_003
Polar name :        T1-19.2 m/s-VLM2
Freestream speed :  19.240 m/s


   alpha      Beta       CL          CDi        CDv        CD         CY         Cl         Cm         Cn        Cni       QInf        XCP
   -1.000     0.000  -0.152403   0.001304   0.012165   0.013468  -0.000000   0.000000   0.175827   0.000000   0.000000   19.2400     0.5459
   -0.500     0.000  -0.118211   0.000837   0.012413   0.013250  -0.000000   0.000000   0.151166   0.000000   0.000000   19.2400     0.5646
    0.000     0.000  -0.083995   0.000493   0.012745   0.013239  -0.000000   0.000000   0.126482   0.000000   0.000000   19.2400     0.5986
    0.500     0.000  -0.049759   0.000273   0.013074   0.013347  -0.000000   0.000000   0.101784   0.000000   0.000000   19.2400     0.6797
    1.000     0.000  -0.015510   0.000177   0.013312   0.013489   0.000000   0.000000   0.077082  -0.000000  -0.000000   19.2400     1.1191
    1.500     0.000   0.018747   0.000204   0.013224   0.013429   0.000000   0.000000   0.052394  -0.000000  -0.000000   19.2400    -0.0476
    2.000     0.000   0.053006   0.000356   0.013119   0.013476   0.000000   0.000000   0.027719  -0.000000  -0.000000   19.2400     0.2938


